Circuit: * C:\Users\owenr\Documents\EE251\Broadband Owen.asc

WARNING: Node VOUT is floating.

WARNING: Less than two connections to node vout.  This node is used by c2.
Direct Newton iteration for .op point succeeded.

Date: Wed Feb 14 02:23:58 2024
Total elapsed time: 0.060 seconds.

tnom = 27
temp = 27
method = trap
totiter = 7
traniter = 0
tranpoints = 0
accept = 0
rejected = 0
matrix size = 14
fillins = 6
solver = Normal
Avg thread counts: 12.0/0.0/12.0/1.2
Matrix Compiler1:      63 opcodes
Matrix Compiler2: 1.17 KB object code size
