Circuit: * C:\Users\owenr\Documents\EE251\Broadband Owen.asc

Direct Newton iteration for .op point succeeded.

Date: Sun Feb 11 10:47:59 2024
Total elapsed time: 0.050 seconds.

tnom = 27
temp = 27
method = trap
totiter = 4
traniter = 0
tranpoints = 0
accept = 0
rejected = 0
matrix size = 15
fillins = 6
solver = Normal
Avg thread counts: 12.0/0.0/12.0/1.2
Matrix Compiler1:      66 opcodes
Matrix Compiler2: 1.25 KB object code size
