Circuit: * C:\Users\owenr\Documents\EE251\Draft1.asc

