Circuit: * C:\Users\owenr\Documents\EE251\Lab 3 final.asc

WARNING: Node VTUNE is floating.

WARNING: Less than two connections to node vtune.  This node is used by r5.
Direct Newton iteration for .op point succeeded.
Heightened Def Con from 3.53028e-06 to 3.53028e-06

Date: Wed Feb 28 22:22:56 2024
Total elapsed time: 4.902 seconds.

tnom = 27
temp = 27
method = modified trap
totiter = 1632832
traniter = 1632823
tranpoints = 579926
accept = 400806
rejected = 179121
matrix size = 40
fillins = 23
solver = Normal
Avg thread counts: 1.0/1.0/1.0/1.0
Matrix Compiler1:     225 opcodes  0.7/[0.3]/0.5
Matrix Compiler2: off  [0.2]/0.9/0.4

