Circuit: * C:\Users\owenr\Documents\EE251\Narrowband.asc

Direct Newton iteration for .op point succeeded.

Date: Tue Feb  6 17:03:49 2024
Total elapsed time: 0.048 seconds.

tnom = 27
temp = 27
method = trap
totiter = 4
traniter = 0
tranpoints = 0
accept = 0
rejected = 0
matrix size = 13
fillins = 12
solver = Normal
Avg thread counts: 12.0/0.0/12.0/9.7
Matrix Compiler1:      74 opcodes
Matrix Compiler2: 1.19 KB object code size
