Circuit: * C:\Users\owenr\Documents\EE251\Narrowband.asc

WARNING: Node VOUT is floating.

WARNING: Less than two connections to node vout.  This node is used by c2.
Direct Newton iteration for .op point succeeded.

Date: Wed Feb 14 01:07:35 2024
Total elapsed time: 0.025 seconds.

tnom = 27
temp = 27
method = trap
totiter = 4
traniter = 0
tranpoints = 0
accept = 0
rejected = 0
matrix size = 13
fillins = 6
solver = Normal
Avg thread counts: 12.0/0.0/12.0/3.0
Matrix Compiler1:      60 opcodes
Matrix Compiler2: 1.10 KB object code size
