Stray ".ends" card: .ends
Circuit: * C:\Users\owenr\Documents\EE251\Narrowband.asc

Warning: Multiple definitions of model "2scr375p" Type: BJT
Warning: Multiple definitions of model "bc857b" Type: BJT
Warning: Multiple definitions of model "bc847c" Type: BJT
Warning: Multiple definitions of model "bc847b" Type: BJT
WARNING: Node NC_03 is floating.

WARNING: Less than two connections to node nc_01.  This node is used by q1.
WARNING: Less than two connections to node nc_02.  This node is used by q1.
WARNING: Less than two connections to node nc_03.  This node is used by q1.
.OP point found by inspection.

Date: Sun Feb  4 17:13:36 2024
Total elapsed time: 0.118 seconds.

tnom = 27
temp = 27
method = modified trap
totiter = 2088
traniter = 2088
tranpoints = 1045
accept = 1045
rejected = 0
matrix size = 4
fillins = 0
solver = Normal
Avg thread counts: 1.5/1.9/1.9/1.5
Matrix Compiler1:      17 opcodes  0.3/[0.2]/0.5
Matrix Compiler2: off  [0.1]/0.2/0.2

