Circuit: * C:\Users\owenr\Documents\EE251\Narrowband.asc

Direct Newton iteration for .op point succeeded.

Date: Mon Feb  5 10:17:28 2024
Total elapsed time: 0.038 seconds.

tnom = 27
temp = 27
method = trap
totiter = 12
traniter = 0
tranpoints = 0
accept = 0
rejected = 0
matrix size = 9
fillins = 4
solver = Normal
Avg thread counts: 12.0/0.0/12.0/2.6
Matrix Compiler1:      47 opcodes
Matrix Compiler2: 817 bytes object code size
