Circuit: * C:\Users\owenr\Documents\EE251\Oscillator.asc

Direct Newton iteration for .op point succeeded.

Date: Fri Feb 23 18:31:51 2024
Total elapsed time: 0.079 seconds.

tnom = 27
temp = 27
method = modified trap
totiter = 5578
traniter = 5572
tranpoints = 2778
accept = 2037
rejected = 741
matrix size = 18
fillins = 12
solver = Normal
Avg thread counts: 1.2/1.3/1.3/1.2
Matrix Compiler1: 1.99 KB object code size  0.7/0.5/[0.3]
Matrix Compiler2: off  [0.2]/0.4/0.3

