Circuit: * C:\Users\owenr\Documents\EE251\Oscillator.asc

Direct Newton iteration for .op point succeeded.

Date: Fri Feb 23 22:35:42 2024
Total elapsed time: 0.155 seconds.

tnom = 27
temp = 27
method = modified trap
totiter = 41772
traniter = 41766
tranpoints = 20417
accept = 13666
rejected = 6751
matrix size = 18
fillins = 12
solver = Normal
Avg thread counts: 1.0/1.0/1.0/1.0
Matrix Compiler1: 1.99 KB object code size  0.9/0.5/[0.4]
Matrix Compiler2: 1.76 KB object code size  0.3/0.5/[0.3]

