Circuit: * C:\Users\owenr\Documents\EE251\Oscillator.asc

WARNING: Less than two connections to node vob.  This node is used by r6.
Direct Newton iteration for .op point succeeded.

Date: Sat Feb 24 16:45:08 2024
Total elapsed time: 0.072 seconds.

tnom = 27
temp = 27
method = modified trap
totiter = 26424
traniter = 26417
tranpoints = 12615
accept = 8501
rejected = 4114
matrix size = 19
fillins = 12
solver = Normal
Avg thread counts: 1.0/1.1/1.1/1.0
Matrix Compiler1: 2.00 KB object code size  0.5/0.4/[0.3]
Matrix Compiler2: off  [0.2]/0.4/0.2

